167

Cl      -0.61264693      -4.35921857       0.00000000
Na       1.46064681      -2.40372553       0.00000000
H      -4.75169400       4.75596700      -1.93123000
H      -4.32340700       3.28971600      -2.03257100
O       2.87228900      -1.60895900      -1.90322100
H       2.39521600      -2.14711300      -2.55987100
H       3.29711400      -0.91597300      -2.43959100
O      -2.83103600      -4.53753800       1.13842700
H      -2.22526900      -4.76308200       1.86683200
H      -3.70995300      -4.76059900       1.49360100
O       3.41121500      -4.55497200      -0.25199800
H       3.58918700      -3.62457400      -0.47801800
H       2.49598000      -4.69351500      -0.55457200
O      -4.02085500       0.91599600      -3.86906500
H      -4.73090500       1.13971600      -3.24123100
H      -4.50104000       0.65932600      -4.67649400
O       1.84497500      -4.43133100      -3.81643400
H       1.08761900      -4.75434900      -3.29636600
H       1.65894700      -4.75292400      -4.71664000
O       1.65841700      -2.32423700       4.19781800
H       1.38892300      -1.57070800       4.75276400
H       2.34445200      -2.76653100       4.72897800
O       2.34297500       4.40401400       2.50013700
H       2.67436500       3.48836100       2.48750400
H       2.68187200       4.75903900       3.34126900
O      -1.76980700       4.17034400       3.98231700
H      -1.48363400       4.75122100       3.25493400
H      -1.77538900       4.75949500       4.75773300
O       0.64340100       3.53992000       4.12029100
H       0.67732000       4.27835700       4.75429300
H       0.23116100       2.81927400       4.62933600
O       3.85087800      -4.71806700       2.20355700
H       4.75624500      -4.75032000       1.84625000
H       3.69417900      -3.76750100       2.34592500
O       0.08932700      -2.75796600      -4.42208600
H      -0.33061700      -1.94729000      -4.76098300
H      -0.48633200      -3.47021100      -4.75333000
O       4.64383100       0.99965000       1.80969100
H       4.75216100       0.90173800       2.77253900
H       4.47960200       1.95244600       1.69304000
O      -4.15141800       3.98547500       4.72117600
H      -4.75640700       3.22288200       4.75013900
H      -4.75035500       4.75158300       4.66871600
O      -4.24363200      -1.32674300      -1.95063800
H      -3.85169200      -2.21821600      -1.94311500
H      -4.77108200      -1.31495200      -2.76920700
O       4.76089800      -4.73592900      -3.31785600
H       4.03976200      -4.75163600      -2.66355100
H       4.29580900      -4.77162400      -4.17273400
O       4.34333500      -2.27452200      -4.25834100
H       4.75937600      -1.54977200      -4.75838600
H       3.53252600      -2.46542000      -4.76286600
O      -0.20984800       3.80288700      -4.75954700
H       0.76322300       3.76378400      -4.75780800
H      -0.40107200       4.75774800      -4.75115000
O       4.18217300       3.98811900      -2.30685600
H       4.76772100       4.76423700      -2.25052900
H       4.75961700       3.29063500      -2.66528900
O      -1.91576300       4.35878700      -0.43896300
H      -2.25795500       3.44768100      -0.40447400
H      -2.22813100       4.75287000       0.39501800
O      -4.28981400       4.19170500       1.69280900
H      -4.75871700       3.54192800       2.24627000
H      -3.83317100       4.75768900       2.34052600
O       4.75305000      -4.46649500       4.52140500
H       4.75242600      -3.52062400       4.75319200
H       3.85304500      -4.75945400       4.75067300
O       1.22438200      -4.20896300       2.48293400
H       1.56555200      -4.75200900       3.21580800
H       1.40377800      -4.75026700       1.69350000
O       0.42079500       0.99685800       2.83759500
H       1.27882100       1.42188000       2.65997900
H       0.56534900       0.53186200       3.68097000
O       4.04384300       1.27614700      -1.35907200
H       4.75897100       1.55342200      -0.75898100
H       3.35993200       0.93190800      -0.75727200
O       0.39598300       2.04988400       0.09580500
H       1.07772400       1.35835200       0.16936900
H      -0.26433400       1.65822600      -0.50334800
O      -0.52920700      -1.41034000       1.13946700
H      -0.43939000      -0.45301400       0.98500400
H       0.05885200      -1.57652300       1.89773300
O      -2.42816800       0.39015800      -2.01172200
H      -2.67209600       1.28603300      -1.71794400
H      -1.51331500       0.49393700      -2.32901400
O      -2.30408400       3.91126400      -3.36882400
H      -2.25517300       4.75438300      -2.88389300
H      -1.74111900       3.31289000      -2.84593100
O      -3.00455500      -1.77735100       0.36704800
H      -2.74855800      -0.86987500       0.12342800
H      -3.96689800      -1.71556000       0.50297900
O       4.57266200      -1.22132300       0.66466700
H       3.61598100      -1.38271600       0.74900100
H       4.75636000      -1.41538300      -0.27181300
O      -3.99355700      -1.44770000       4.76858100
H      -3.62142700      -0.54797800       4.78903000
H      -4.77591200      -1.35938300       4.19541500
O      -1.18394600       0.95312000      -4.76354300
H      -0.37162300       1.33609400      -4.38689800
H      -1.81479300       1.69491400      -4.75035800
O       3.71513300       4.19294500      -4.75605300
H       4.51093500       4.75396200      -4.73713900
H       3.02225900       4.76491600      -4.38032300
O      -4.75048800      -4.70870500      -3.90166100
H      -4.28450200      -4.75367500      -4.75561300
H      -4.75557900      -3.75749500      -3.69292600
O       2.13651500       3.84415000       0.07248600
H       2.31382100       4.75056600      -0.23633800
H       2.42705200       3.28728600      -0.67175200
O       0.37395100       4.74610900      -2.37432600
H       0.27611100       4.13706500      -1.62074100
H       1.33417000       4.75825700      -2.53628700
O      -4.77021200       1.47480400      -0.37271000
H      -4.75382700       0.62251200       0.09817100
H      -4.24987400       2.06434400       0.20182400
O      -2.34430400      -2.50676800       3.11054100
H      -2.17868100      -1.55216200       3.01207300
H      -3.22174700      -2.63023100       2.70650000
O      -4.40957000      -4.75127300      -1.42531200
H      -4.75464300      -4.19349100      -0.70544900
H      -3.44742400      -4.75088500      -1.27473400
O      -4.10118700       1.16176900       2.63563100
H      -3.96442100       0.21864300       2.43511500
H      -4.76068300       1.15067400       3.35211000
O       4.75001000       4.75405200       0.58043100
H       4.75006500       3.88831600       0.13444800
H       4.73704400       4.52458400       1.52677900
O      -2.75144700      -1.81993500      -4.15215300
H      -2.68067500      -1.05674000      -4.75292200
H      -2.82263900      -2.58102100      -4.75554200
O       4.75780400       0.94877500      -4.69239600
H       4.75566900       1.92055100      -4.75600500
H       4.58390300       0.78024900      -3.74912700
O       4.50161000       3.78890500       4.75393100
H       4.75682600       3.46892500       3.87025900
H       4.75427800       4.72929900       4.73919200
O       0.02360100      -1.46290800      -2.05557200
H      -0.66612400      -1.66642800      -1.39886900
H       0.53909700      -0.75226000      -1.63409600
O      -4.75308300       4.03976400      -4.37822500
H      -4.36102300       3.23021900      -4.75148800
H      -4.20708400       4.75333800      -4.75385200
O      -1.57026500       2.17547900       1.63387500
H      -2.05671800       1.43760000       1.22485600
H      -2.27488600       2.74328000       1.99374900
O       1.38208400       2.26658800      -2.85427000
H       1.46642400       1.47228600      -2.29716100
H       2.30499000       2.51189400      -3.04523700
O      -0.62281200      -3.98929800       4.15304500
H      -0.63643300      -4.75566500       4.75379000
H      -0.60546700      -3.22510100       4.75645300
O       4.13772700      -1.29124000       3.80358500
H       4.75263100      -1.62345100       3.12540600
H       4.72588200      -0.99318600       4.52026900
O       2.20608400      -0.26491800      -4.60250100
H       1.43733100      -0.34787200      -4.01044000
H       2.27195100       0.69386600      -4.75996400
O      -1.81452700       1.38301200       4.66703700
H      -2.64068400       1.89152400       4.75235500
H      -1.89471100       0.95997900       3.79353100
O      -1.44661800      -4.69933200      -2.77267500
H      -1.47688800      -3.77327800      -2.47283400
H      -2.16935700      -4.75358200      -3.42314100
O       3.32431400       1.44604000       4.75118500
H       2.63120100       2.13013900       4.75006600
H       2.82272800       0.61128900       4.75240400
O      -4.53236000       3.98283800      -1.38117300
VEC1      12.00000000       0.00000000       0.00000000 
VEC2       0.00000000      12.00000000       0.00000000 
VEC3       0.00000000       0.00000000      12.00000000 
